Version 4
SHEET 1 1208 680
WIRE -448 -128 -672 -128
WIRE -384 -128 -448 -128
WIRE -320 -128 -384 -128
WIRE -176 -128 -240 -128
WIRE -112 -128 -176 -128
WIRE -48 -128 -112 -128
WIRE 64 -128 -48 -128
WIRE 208 -128 160 -128
WIRE 368 -128 208 -128
WIRE 400 -128 368 -128
WIRE 496 -128 400 -128
WIRE 1008 -128 576 -128
WIRE 1136 -128 1008 -128
WIRE 80 0 80 -80
WIRE -672 32 -672 -128
WIRE -176 48 -176 -128
WIRE -48 48 -48 -128
WIRE 80 48 80 0
WIRE 208 48 208 -128
WIRE 672 128 592 128
WIRE 400 160 400 -128
WIRE 672 160 672 128
WIRE 1008 160 1008 -128
WIRE 1136 160 1136 -128
WIRE -384 208 -384 -128
WIRE -432 288 -864 288
WIRE -864 320 -864 288
WIRE 16 320 16 304
WIRE 320 320 16 320
WIRE 400 320 400 224
WIRE 400 320 320 320
WIRE 16 336 16 320
WIRE -864 448 -864 400
WIRE -672 448 -672 112
WIRE -672 448 -864 448
WIRE -384 448 -384 304
WIRE -384 448 -672 448
WIRE 16 448 16 416
WIRE 16 448 -384 448
WIRE 592 448 592 128
WIRE 592 448 16 448
WIRE 672 448 672 224
WIRE 672 448 592 448
WIRE 1008 448 1008 240
WIRE 1008 448 672 448
WIRE 1136 448 1136 224
WIRE 1136 448 1008 448
WIRE -672 480 -672 448
FLAG -672 480 0
FLAG -448 -128 IN
FLAG 368 -128 OUT
FLAG 80 0 GATE
FLAG 320 320 VSS
FLAG -112 -128 SOURCE
SYMBOL SpecialFunctions\\LTC4359 16 176 R0
SYMATTR InstName U1
SYMBOL nmos 160 -80 M270
SYMATTR InstName M1
SYMATTR Value BSC028N06LS3
SYMBOL voltage -672 16 R0
WINDOW 123 0 0 Left 2
WINDOW 39 24 124 Left 2
SYMATTR SpiceLine Rser=0.01
SYMATTR InstName V1
SYMATTR Value 55v
SYMBOL res 0 320 R0
SYMATTR InstName R1
SYMATTR Value 3k6
SYMBOL cap 384 160 R0
SYMATTR InstName C1
SYMATTR Value 2µ2
SYMBOL load 656 160 R0
WINDOW 123 48 84 Left 2
WINDOW 39 0 0 Left 2
SYMATTR Value2 AC 1 0
SYMATTR InstName I1
SYMATTR Value SINE(10.1 9.9 10)
SYMBOL voltage -864 304 R0
WINDOW 123 0 0 Left 2
WINDOW 39 24 124 Left 2
SYMATTR SpiceLine Rser=0 Cpar=0
SYMATTR InstName V2
SYMATTR Value PULSE(0 15 0.01 10p 10p 0.005)
SYMBOL ind -336 -112 R270
WINDOW 0 32 56 VTop 2
WINDOW 3 5 56 VBottom 2
SYMATTR InstName L1
SYMATTR Value 1f
SYMBOL ind 480 -112 R270
WINDOW 0 32 56 VTop 2
WINDOW 3 5 56 VBottom 2
SYMATTR InstName L2
SYMATTR Value 1f
SYMBOL res 992 144 R0
SYMATTR InstName R3
SYMATTR Value 0.6
SYMBOL nmos -432 208 R0
SYMATTR InstName M3
SYMATTR Value IPT004N03L
SYMBOL cap 1120 160 R0
SYMATTR InstName C2
SYMATTR Value 100µ
TEXT -704 504 Left 2 !.tran 0 0.02 0 1u
